           60

C       0.71500007    0.00000000    3.47068307
C      -0.71499994    0.00000000    3.47068307
C       1.43000013    1.15689432    3.02878901
C       0.71500007    2.31378863    2.58689445
C       2.58689445    0.71500000    2.31378888
C       3.02878901    1.43000001    1.15689444
C       2.58689445   -0.71500000    2.31378888
C       3.02878901   -1.43000001    1.15689444
C       1.43000013   -1.15689432    3.02878901
C       0.71500007   -2.31378863    2.58689445
C      -1.43000013    1.15689432    3.02878901
C      -0.71500007    2.31378863    2.58689445
C      -1.43000013   -1.15689432    3.02878901
C      -0.71500007   -2.31378863    2.58689445
C      -2.58689445    0.71500000    2.31378888
C      -3.02878901    1.43000001    1.15689444
C      -2.58689445   -0.71500000    2.31378888
C      -3.02878901   -1.43000001    1.15689444
C       1.15689432    3.02878901    1.43000013
C       2.31378863    2.58689445    0.71500007
C      -1.15689432    3.02878901    1.43000013
C      -2.31378863    2.58689445    0.71500007
C       0.00000000    3.47068307    0.71500007
C       0.00000000    3.47068307   -0.71499994
C       3.47068307    0.71500007    0.00000000
C       3.47068307   -0.71499994    0.00000000
C       2.31378888    2.58689445   -0.71500000
C       1.15689444    3.02878901   -1.43000001
C       3.02878901    1.43000013   -1.15689432
C       2.58689445    0.71500007   -2.31378863
C       2.31378888   -2.58689445    0.71500000
C       1.15689444   -3.02878901    1.43000001
C       3.02878901   -1.43000013   -1.15689432
C       2.58689445   -0.71500007   -2.31378863
C       2.31378888   -2.58689445   -0.71500000
C       1.15689444   -3.02878901   -1.43000001
C       0.00000000   -3.47068307    0.71500007
C       0.00000000   -3.47068307   -0.71499994
C      -1.15689432   -3.02878901    1.43000013
C      -2.31378863   -2.58689445    0.71500007
C      -2.31378888    2.58689445   -0.71500000
C      -1.15689444    3.02878901   -1.43000001
C      -3.47068307    0.71500007    0.00000000
C      -3.47068307   -0.71499994    0.00000000
C      -3.02878901    1.43000013   -1.15689432
C      -2.58689445    0.71500007   -2.31378863
C       0.71500000    2.31378888   -2.58689445
C       1.43000001    1.15689444   -3.02878901
C      -0.71500000    2.31378888   -2.58689445
C      -1.43000001    1.15689444   -3.02878901
C       1.43000013   -1.15689432   -3.02878901
C       0.71500007   -2.31378863   -2.58689445
C       0.71500007    0.00000000   -3.47068307
C      -0.71499994    0.00000000   -3.47068307
C      -1.15689432   -3.02878901   -1.43000013
C      -2.31378863   -2.58689445   -0.71500007
C      -0.71500000   -2.31378888   -2.58689445
C      -1.43000001   -1.15689444   -3.02878901
C      -3.02878901   -1.43000013   -1.15689432
C      -2.58689445   -0.71500007   -2.31378863
