           540

C       2.86000027    1.15689432    9.97015466
C       1.43000013    1.15689432    9.97015466
C      -1.42999963    1.15689432    9.97015466
C      -2.86000002    1.15689432    9.97015466
C       3.57500040    2.31378863    9.52826085
C       0.71500007    2.31378863    9.52826085
C      -0.71499981    2.31378863    9.52826085
C      -3.57499989    2.31378863    9.52826085
C       2.86000027    3.47068307    9.08636704
C       1.43000013    3.47068307    9.08636704
C      -1.42999988    3.47068307    9.08636704
C      -2.85999976    3.47068307    9.08636704
C       0.71500019    4.62757726    8.64447223
C      -0.71499994    4.62757726    8.64447223
C       1.43000039    5.78447171    8.20257791
C      -1.42999988    5.78447171    8.20257791
C       0.71500019    6.94136615    7.76068310
C      -0.71499994    6.94136615    7.76068310
C       2.86000027   -1.15689432    9.97015466
C       1.43000013   -1.15689432    9.97015466
C      -1.42999963   -1.15689432    9.97015466
C      -2.86000002   -1.15689432    9.97015466
C       3.57500040   -2.31378863    9.52826085
C       0.71500007   -2.31378863    9.52826085
C      -0.71499981   -2.31378863    9.52826085
C      -3.57499989   -2.31378863    9.52826085
C       2.86000027   -3.47068307    9.08636704
C       1.43000013   -3.47068307    9.08636704
C      -1.42999988   -3.47068307    9.08636704
C      -2.85999976   -3.47068307    9.08636704
C       0.71500019   -4.62757726    8.64447223
C      -0.71499994   -4.62757726    8.64447223
C       1.43000039   -5.78447171    8.20257791
C      -1.42999988   -5.78447171    8.20257791
C       0.71500019   -6.94136615    7.76068310
C      -0.71499994   -6.94136615    7.76068310
C       5.44689472    3.02878876    8.37136590
C       4.73189459    4.18568346    7.92947260
C       3.30189458    6.49947184    7.04568347
C       2.58689445    7.65636678    6.60378916
C       6.60378865    2.58689445    7.65636678
C       5.17378890    4.90068308    6.77257866
C       4.45878877    6.05757752    6.33068385
C       3.02878901    8.37136691    5.44689472
C       7.04568297    3.30189433    6.49947184
C       6.33068334    4.45878877    6.05757752
C       4.90068359    6.77257765    5.17378940
C       4.18568346    7.92947159    4.73189459
C       6.77257816    5.17378890    4.90068308
C       6.05757803    6.33068284    4.45878927
C       7.92947210    4.73189408    4.18568346
C       6.49947184    7.04568297    3.30189534
C       8.37136691    5.44689421    3.02878876
C       7.65636678    6.60378865    2.58689420
C       7.76068310    0.71500000    6.94136665
C       8.20257791    1.43000013    5.78447221
C       9.08636704    2.86000002    3.47068358
C       9.52826186    3.57500015    2.31378888
C       7.76068310   -0.71500000    6.94136615
C       8.64447223    0.71500007    4.62757777
C       9.08636704    1.43000001    3.47068333
C       9.97015567    2.86000027    1.15689444
C       8.20257791   -1.43000013    5.78447171
C       8.64447223   -0.71500007    4.62757777
C       9.52826186    0.71499994    2.31378888
C       9.97015567    1.42999988    1.15689469
C       9.08636603   -1.43000001    3.47068358
C       9.52826085   -0.71499994    2.31378888
C       9.08636704   -2.86000002    3.47068307
C       9.97015466   -1.42999988    1.15689469
C       9.52826186   -3.57500015    2.31378838
C       9.97015466   -2.86000027    1.15689469
C       6.60378865   -2.58689445    7.65636678
C       7.04568297   -3.30189433    6.49947184
C       7.92947210   -4.73189408    4.18568346
C       8.37136691   -5.44689421    3.02878901
C       5.44689472   -3.02878876    8.37136590
C       6.33068334   -4.45878877    6.05757803
C       6.77257816   -5.17378890    4.90068359
C       7.65636729   -6.60378865    2.58689445
C       4.73189459   -4.18568346    7.92947159
C       5.17378890   -4.90068308    6.77257816
C       6.05757803   -6.33068284    4.45878877
C       6.49947234   -7.04568297    3.30189483
C       4.45878877   -6.05757752    6.33068334
C       4.90068359   -6.77257765    5.17378890
C       3.30189483   -6.49947184    7.04568297
C       4.18568346   -7.92947159    4.73189459
C       2.58689470   -7.65636678    6.60378865
C       3.02878876   -8.37136691    5.44689472
C      -5.44689472    3.02878876    8.37136590
C      -4.73189459    4.18568346    7.92947260
C      -3.30189458    6.49947184    7.04568347
C      -2.58689445    7.65636678    6.60378916
C      -6.60378865    2.58689445    7.65636678
C      -5.17378890    4.90068308    6.77257866
C      -4.45878877    6.05757752    6.33068385
C      -3.02878901    8.37136691    5.44689472
C      -7.04568297    3.30189433    6.49947184
C      -6.33068334    4.45878877    6.05757752
C      -4.90068359    6.77257765    5.17378940
C      -4.18568346    7.92947159    4.73189459
C      -6.77257816    5.17378890    4.90068308
C      -6.05757803    6.33068284    4.45878927
C      -7.92947210    4.73189408    4.18568346
C      -6.49947184    7.04568297    3.30189534
C      -8.37136691    5.44689421    3.02878876
C      -7.65636678    6.60378865    2.58689420
C      -7.76068310    0.71500000    6.94136665
C      -8.20257791    1.43000013    5.78447221
C      -9.08636704    2.86000002    3.47068358
C      -9.52826186    3.57500015    2.31378888
C      -7.76068310   -0.71500000    6.94136615
C      -8.64447223    0.71500007    4.62757777
C      -9.08636704    1.43000001    3.47068333
C      -9.97015567    2.86000027    1.15689444
C      -8.20257791   -1.43000013    5.78447171
C      -8.64447223   -0.71500007    4.62757777
C      -9.52826186    0.71499994    2.31378888
C      -9.97015567    1.42999988    1.15689469
C      -9.08636603   -1.43000001    3.47068358
C      -9.52826085   -0.71499994    2.31378888
C      -9.08636704   -2.86000002    3.47068307
C      -9.97015466   -1.42999988    1.15689469
C      -9.52826186   -3.57500015    2.31378838
C      -9.97015466   -2.86000027    1.15689469
C      -5.44689472   -3.02878876    8.37136590
C      -4.73189459   -4.18568346    7.92947260
C      -3.30189458   -6.49947184    7.04568347
C      -2.58689445   -7.65636678    6.60378916
C      -6.60378865   -2.58689445    7.65636678
C      -5.17378890   -4.90068308    6.77257866
C      -4.45878877   -6.05757752    6.33068385
C      -3.02878901   -8.37136691    5.44689472
C      -7.04568297   -3.30189433    6.49947184
C      -6.33068334   -4.45878877    6.05757752
C      -4.90068359   -6.77257765    5.17378940
C      -4.18568346   -7.92947159    4.73189459
C      -6.77257816   -5.17378890    4.90068308
C      -6.05757803   -6.33068284    4.45878927
C      -7.92947210   -4.73189408    4.18568346
C      -6.49947184   -7.04568297    3.30189534
C      -8.37136691   -5.44689421    3.02878876
C      -7.65636678   -6.60378865    2.58689420
C      -2.31378863    9.52826085    3.57500040
C      -3.47068307    9.08636704    2.86000027
C      -5.78447171    8.20257791    1.43000026
C      -6.94136615    7.76068310    0.71500007
C      -1.15689432    9.97015466    2.86000002
C      -3.47068307    9.08636704    1.43000013
C      -4.62757726    8.64447223    0.71500019
C      -6.94136615    7.76068310   -0.71499994
C      -1.15689432    9.97015466    1.42999988
C      -2.31378863    9.52826085    0.71500019
C      -4.62757726    8.64447223   -0.71499994
C      -5.78447171    8.20257791   -1.42999988
C      -2.31378863    9.52826085   -0.71499969
C      -3.47068307    9.08636704   -1.42999988
C      -1.15689432    9.97015466   -1.42999988
C      -3.47068307    9.08636704   -2.85999976
C      -1.15689432    9.97015466   -2.86000027
C      -2.31378863    9.52826085   -3.57499989
C       2.31378863    9.52826085    3.57500040
C       3.47068307    9.08636704    2.86000027
C       5.78447171    8.20257791    1.43000026
C       6.94136615    7.76068310    0.71500007
C       1.15689432    9.97015466    2.86000002
C       3.47068307    9.08636704    1.43000013
C       4.62757726    8.64447223    0.71500019
C       6.94136615    7.76068310   -0.71499994
C       1.15689432    9.97015466    1.42999988
C       2.31378863    9.52826085    0.71500019
C       4.62757726    8.64447223   -0.71499994
C       5.78447171    8.20257791   -1.42999988
C       2.31378863    9.52826085   -0.71499969
C       3.47068307    9.08636704   -1.42999988
C       1.15689432    9.97015466   -1.42999988
C       3.47068307    9.08636704   -2.85999976
C       1.15689432    9.97015466   -2.86000027
C       2.31378863    9.52826085   -3.57499989
C       7.65636678    6.60378865   -2.58689445
C       6.49947184    7.04568297   -3.30189433
C       4.18568346    7.92947210   -4.73189408
C       3.02878901    8.37136691   -5.44689421
C       8.37136590    5.44689472   -3.02878876
C       6.05757803    6.33068334   -4.45878877
C       4.90068359    6.77257816   -5.17378890
C       2.58689445    7.65636729   -6.60378865
C       7.92947159    4.73189459   -4.18568346
C       6.77257816    5.17378890   -4.90068308
C       4.45878877    6.05757803   -6.33068284
C       3.30189483    6.49947234   -7.04568297
C       6.33068334    4.45878877   -6.05757752
C       5.17378890    4.90068359   -6.77257765
C       7.04568297    3.30189483   -6.49947184
C       4.73189459    4.18568346   -7.92947159
C       6.60378865    2.58689470   -7.65636678
C       5.44689472    3.02878876   -8.37136691
C       9.97015466    2.86000027   -1.15689432
C       9.97015466    1.43000013   -1.15689432
C       9.97015466   -1.42999963   -1.15689432
C       9.97015466   -2.86000002   -1.15689432
C       9.52826085    3.57500040   -2.31378863
C       9.52826085    0.71500007   -2.31378863
C       9.52826085   -0.71499981   -2.31378863
C       9.52826085   -3.57499989   -2.31378863
C       9.08636704    2.86000027   -3.47068307
C       9.08636704    1.43000013   -3.47068307
C       9.08636704   -1.42999988   -3.47068307
C       9.08636704   -2.85999976   -3.47068307
C       8.64447223    0.71500019   -4.62757726
C       8.64447223   -0.71499994   -4.62757726
C       8.20257791    1.43000039   -5.78447171
C       8.20257791   -1.42999988   -5.78447171
C       7.76068310    0.71500019   -6.94136615
C       7.76068310   -0.71499994   -6.94136615
C       8.37136590   -5.44689472   -3.02878876
C       7.92947260   -4.73189459   -4.18568346
C       7.04568347   -3.30189458   -6.49947184
C       6.60378916   -2.58689445   -7.65636678
C       7.65636678   -6.60378865   -2.58689445
C       6.77257866   -5.17378890   -4.90068308
C       6.33068385   -4.45878877   -6.05757752
C       5.44689472   -3.02878901   -8.37136691
C       6.49947184   -7.04568297   -3.30189433
C       6.05757752   -6.33068334   -4.45878877
C       5.17378940   -4.90068359   -6.77257765
C       4.73189459   -4.18568346   -7.92947159
C       4.90068308   -6.77257816   -5.17378890
C       4.45878927   -6.05757803   -6.33068284
C       4.18568346   -7.92947210   -4.73189408
C       3.30189534   -6.49947184   -7.04568297
C       3.02878876   -8.37136691   -5.44689421
C       2.58689420   -7.65636678   -6.60378865
C       6.94136665   -7.76068310    0.71500000
C       5.78447221   -8.20257791    1.43000013
C       3.47068358   -9.08636704    2.86000002
C       2.31378888   -9.52826186    3.57500015
C       6.94136615   -7.76068310   -0.71500000
C       4.62757777   -8.64447223    0.71500007
C       3.47068333   -9.08636704    1.43000001
C       1.15689444   -9.97015567    2.86000027
C       5.78447171   -8.20257791   -1.43000013
C       4.62757777   -8.64447223   -0.71500007
C       2.31378888   -9.52826186    0.71499994
C       1.15689469   -9.97015567    1.42999988
C       3.47068358   -9.08636603   -1.43000001
C       2.31378888   -9.52826085   -0.71499994
C       3.47068307   -9.08636704   -2.86000002
C       1.15689469   -9.97015466   -1.42999988
C       2.31378838   -9.52826186   -3.57500015
C       1.15689469   -9.97015466   -2.86000027
C      -1.15689432   -9.97015466    2.86000027
C      -1.15689432   -9.97015466    1.43000013
C      -1.15689432   -9.97015466   -1.42999963
C      -1.15689432   -9.97015466   -2.86000002
C      -2.31378863   -9.52826085    3.57500040
C      -2.31378863   -9.52826085    0.71500007
C      -2.31378863   -9.52826085   -0.71499981
C      -2.31378863   -9.52826085   -3.57499989
C      -3.47068307   -9.08636704    2.86000027
C      -3.47068307   -9.08636704    1.43000013
C      -3.47068307   -9.08636704   -1.42999988
C      -3.47068307   -9.08636704   -2.85999976
C      -4.62757726   -8.64447223    0.71500019
C      -4.62757726   -8.64447223   -0.71499994
C      -5.78447171   -8.20257791    1.43000039
C      -5.78447171   -8.20257791   -1.42999988
C      -6.94136615   -7.76068310    0.71500019
C      -6.94136615   -7.76068310   -0.71499994
C      -9.97015466    2.86000027   -1.15689432
C      -9.97015466    1.43000013   -1.15689432
C      -9.97015466   -1.42999963   -1.15689432
C      -9.97015466   -2.86000002   -1.15689432
C      -9.52826085    3.57500040   -2.31378863
C      -9.52826085    0.71500007   -2.31378863
C      -9.52826085   -0.71499981   -2.31378863
C      -9.52826085   -3.57499989   -2.31378863
C      -9.08636704    2.86000027   -3.47068307
C      -9.08636704    1.43000013   -3.47068307
C      -9.08636704   -1.42999988   -3.47068307
C      -9.08636704   -2.85999976   -3.47068307
C      -8.64447223    0.71500019   -4.62757726
C      -8.64447223   -0.71499994   -4.62757726
C      -8.20257791    1.43000039   -5.78447171
C      -8.20257791   -1.42999988   -5.78447171
C      -7.76068310    0.71500019   -6.94136615
C      -7.76068310   -0.71499994   -6.94136615
C      -7.65636678    6.60378865   -2.58689445
C      -6.49947184    7.04568297   -3.30189433
C      -4.18568346    7.92947210   -4.73189408
C      -3.02878901    8.37136691   -5.44689421
C      -8.37136590    5.44689472   -3.02878876
C      -6.05757803    6.33068334   -4.45878877
C      -4.90068359    6.77257816   -5.17378890
C      -2.58689445    7.65636729   -6.60378865
C      -7.92947159    4.73189459   -4.18568346
C      -6.77257816    5.17378890   -4.90068308
C      -4.45878877    6.05757803   -6.33068284
C      -3.30189483    6.49947234   -7.04568297
C      -6.33068334    4.45878877   -6.05757752
C      -5.17378890    4.90068359   -6.77257765
C      -7.04568297    3.30189483   -6.49947184
C      -4.73189459    4.18568346   -7.92947159
C      -6.60378865    2.58689470   -7.65636678
C      -5.44689472    3.02878876   -8.37136691
C       0.71500000    6.94136665   -7.76068310
C       1.43000013    5.78447221   -8.20257791
C       2.86000002    3.47068358   -9.08636704
C       3.57500015    2.31378888   -9.52826186
C      -0.71500000    6.94136615   -7.76068310
C       0.71500007    4.62757777   -8.64447223
C       1.43000001    3.47068333   -9.08636704
C       2.86000027    1.15689444   -9.97015567
C      -1.43000013    5.78447171   -8.20257791
C      -0.71500007    4.62757777   -8.64447223
C       0.71499994    2.31378888   -9.52826186
C       1.42999988    1.15689469   -9.97015567
C      -1.43000001    3.47068358   -9.08636603
C      -0.71499994    2.31378888   -9.52826085
C      -2.86000002    3.47068307   -9.08636704
C      -1.42999988    1.15689469   -9.97015466
C      -3.57500015    2.31378838   -9.52826186
C      -2.86000027    1.15689469   -9.97015466
C       3.57500040   -2.31378863   -9.52826085
C       2.86000027   -3.47068307   -9.08636704
C       1.43000026   -5.78447171   -8.20257791
C       0.71500007   -6.94136615   -7.76068310
C       2.86000002   -1.15689432   -9.97015466
C       1.43000013   -3.47068307   -9.08636704
C       0.71500019   -4.62757726   -8.64447223
C      -0.71499994   -6.94136615   -7.76068310
C       1.42999988   -1.15689432   -9.97015466
C       0.71500019   -2.31378863   -9.52826085
C      -0.71499994   -4.62757726   -8.64447223
C      -1.42999988   -5.78447171   -8.20257791
C      -0.71499969   -2.31378863   -9.52826085
C      -1.42999988   -3.47068307   -9.08636704
C      -1.42999988   -1.15689432   -9.97015466
C      -2.85999976   -3.47068307   -9.08636704
C      -2.86000027   -1.15689432   -9.97015466
C      -3.57499989   -2.31378863   -9.52826085
C      -3.02878876   -8.37136590   -5.44689472
C      -4.18568346   -7.92947260   -4.73189459
C      -6.49947184   -7.04568347   -3.30189458
C      -7.65636678   -6.60378916   -2.58689445
C      -2.58689445   -7.65636678   -6.60378865
C      -4.90068308   -6.77257866   -5.17378890
C      -6.05757752   -6.33068385   -4.45878877
C      -8.37136691   -5.44689472   -3.02878901
C      -3.30189433   -6.49947184   -7.04568297
C      -4.45878877   -6.05757752   -6.33068334
C      -6.77257765   -5.17378940   -4.90068359
C      -7.92947159   -4.73189459   -4.18568346
C      -5.17378890   -4.90068308   -6.77257816
C      -6.33068284   -4.45878927   -6.05757803
C      -4.73189408   -4.18568346   -7.92947210
C      -7.04568297   -3.30189534   -6.49947184
C      -5.44689421   -3.02878876   -8.37136691
C      -6.60378865   -2.58689420   -7.65636678
C       5.00500040    0.00000000   10.41204947
C       3.57500015    0.00000000   10.41204947
C       0.71500019    0.00000000   10.41204947
C      -0.71499969    0.00000000   10.41204947
C      -3.57499939    0.00000000   10.41204947
C      -5.00499990    0.00000000   10.41204947
C       5.72000003    1.15689432    9.97015466
C       5.00500040    2.31378863    9.52826085
C       3.57500015    4.62757726    8.64447223
C       2.86000027    5.78447171    8.20257791
C       1.43000039    8.09826009    7.31878878
C       0.71500019    9.25515453    6.87689397
C       6.87689447    0.71500000    9.25515453
C       7.31878878    1.43000001    8.09826109
C       8.20257791    2.86000002    5.78447221
C       8.64447223    3.57499989    4.62757777
C       9.52826186    5.00499990    2.31378939
C       9.97015466    5.72000003    1.15689469
C       6.87689447   -0.71500000    9.25515453
C       7.31878878   -1.43000001    8.09826109
C       8.20257791   -2.86000002    5.78447221
C       8.64447223   -3.57499989    4.62757777
C       9.52826186   -5.00499990    2.31378939
C       9.97015466   -5.72000003    1.15689469
C       5.72000003   -1.15689432    9.97015466
C       5.00500040   -2.31378863    9.52826085
C       3.57500015   -4.62757726    8.64447223
C       2.86000027   -5.78447171    8.20257791
C       1.43000039   -8.09826009    7.31878878
C       0.71500019   -9.25515453    6.87689397
C      -5.72000003    1.15689432    9.97015466
C      -5.00500040    2.31378863    9.52826085
C      -3.57500015    4.62757726    8.64447223
C      -2.86000027    5.78447171    8.20257791
C      -1.43000039    8.09826009    7.31878878
C      -0.71500019    9.25515453    6.87689397
C      -5.72000003   -1.15689432    9.97015466
C      -5.00500040   -2.31378863    9.52826085
C      -3.57500015   -4.62757726    8.64447223
C      -2.86000027   -5.78447171    8.20257791
C      -1.43000039   -8.09826009    7.31878878
C      -0.71500019   -9.25515453    6.87689397
C      -6.87689447    0.71500000    9.25515453
C      -7.31878878    1.43000001    8.09826109
C      -8.20257791    2.86000002    5.78447221
C      -8.64447223    3.57499989    4.62757777
C      -9.52826186    5.00499990    2.31378939
C      -9.97015466    5.72000003    1.15689469
C      -6.87689447   -0.71500000    9.25515453
C      -7.31878878   -1.43000001    8.09826109
C      -8.20257791   -2.86000002    5.78447221
C      -8.64447223   -3.57499989    4.62757777
C      -9.52826186   -5.00499990    2.31378939
C      -9.97015466   -5.72000003    1.15689469
C       1.15689432    9.97015466    5.72000003
C       2.31378863    9.52826085    5.00500040
C       4.62757726    8.64447223    3.57500015
C       5.78447171    8.20257791    2.86000027
C       8.09826009    7.31878878    1.43000039
C       9.25515453    6.87689397    0.71500019
C      -1.15689432    9.97015466    5.72000003
C      -2.31378863    9.52826085    5.00500040
C      -4.62757726    8.64447223    3.57500015
C      -5.78447171    8.20257791    2.86000027
C      -8.09826009    7.31878878    1.43000039
C      -9.25515453    6.87689397    0.71500019
C       0.00000000   10.41204947    5.00500040
C       0.00000000   10.41204947    3.57500015
C       0.00000000   10.41204947    0.71500019
C       0.00000000   10.41204947   -0.71499969
C       0.00000000   10.41204947   -3.57499939
C       0.00000000   10.41204947   -5.00499990
C      10.41204947    5.00500040    0.00000000
C      10.41204947    3.57500015    0.00000000
C      10.41204947    0.71500019    0.00000000
C      10.41204947   -0.71499969    0.00000000
C      10.41204947   -3.57499939    0.00000000
C      10.41204947   -5.00499990    0.00000000
C       9.25515453    6.87689447   -0.71500000
C       8.09826109    7.31878878   -1.43000001
C       5.78447221    8.20257791   -2.86000002
C       4.62757777    8.64447223   -3.57499989
C       2.31378939    9.52826186   -5.00499990
C       1.15689469    9.97015466   -5.72000003
C       9.97015466    5.72000003   -1.15689432
C       9.52826085    5.00500040   -2.31378863
C       8.64447223    3.57500015   -4.62757726
C       8.20257791    2.86000027   -5.78447171
C       7.31878878    1.43000039   -8.09826009
C       6.87689397    0.71500019   -9.25515453
C       9.25515453   -6.87689447    0.71500000
C       8.09826109   -7.31878878    1.43000001
C       5.78447221   -8.20257791    2.86000002
C       4.62757777   -8.64447223    3.57499989
C       2.31378939   -9.52826186    5.00499990
C       1.15689469   -9.97015466    5.72000003
C       9.97015466   -5.72000003   -1.15689432
C       9.52826085   -5.00500040   -2.31378863
C       8.64447223   -3.57500015   -4.62757726
C       8.20257791   -2.86000027   -5.78447171
C       7.31878878   -1.43000039   -8.09826009
C       6.87689397   -0.71500019   -9.25515453
C       9.25515453   -6.87689447   -0.71500000
C       8.09826109   -7.31878878   -1.43000001
C       5.78447221   -8.20257791   -2.86000002
C       4.62757777   -8.64447223   -3.57499989
C       2.31378939   -9.52826186   -5.00499990
C       1.15689469   -9.97015466   -5.72000003
C       0.00000000   -10.41204947    5.00500040
C       0.00000000   -10.41204947    3.57500015
C       0.00000000   -10.41204947    0.71500019
C       0.00000000   -10.41204947   -0.71499969
C       0.00000000   -10.41204947   -3.57499939
C       0.00000000   -10.41204947   -5.00499990
C      -1.15689432   -9.97015466    5.72000003
C      -2.31378863   -9.52826085    5.00500040
C      -4.62757726   -8.64447223    3.57500015
C      -5.78447171   -8.20257791    2.86000027
C      -8.09826009   -7.31878878    1.43000039
C      -9.25515453   -6.87689397    0.71500019
C      -9.25515453    6.87689447   -0.71500000
C      -8.09826109    7.31878878   -1.43000001
C      -5.78447221    8.20257791   -2.86000002
C      -4.62757777    8.64447223   -3.57499989
C      -2.31378939    9.52826186   -5.00499990
C      -1.15689469    9.97015466   -5.72000003
C      -10.41204947    5.00500040    0.00000000
C      -10.41204947    3.57500015    0.00000000
C      -10.41204947    0.71500019    0.00000000
C      -10.41204947   -0.71499969    0.00000000
C      -10.41204947   -3.57499939    0.00000000
C      -10.41204947   -5.00499990    0.00000000
C      -9.97015466    5.72000003   -1.15689432
C      -9.52826085    5.00500040   -2.31378863
C      -8.64447223    3.57500015   -4.62757726
C      -8.20257791    2.86000027   -5.78447171
C      -7.31878878    1.43000039   -8.09826009
C      -6.87689397    0.71500019   -9.25515453
C       0.71500000    9.25515453   -6.87689447
C       1.43000001    8.09826109   -7.31878878
C       2.86000002    5.78447221   -8.20257791
C       3.57499989    4.62757777   -8.64447223
C       5.00499990    2.31378939   -9.52826186
C       5.72000003    1.15689469   -9.97015466
C      -0.71500000    9.25515453   -6.87689447
C      -1.43000001    8.09826109   -7.31878878
C      -2.86000002    5.78447221   -8.20257791
C      -3.57499989    4.62757777   -8.64447223
C      -5.00499990    2.31378939   -9.52826186
C      -5.72000003    1.15689469   -9.97015466
C       5.72000003   -1.15689432   -9.97015466
C       5.00500040   -2.31378863   -9.52826085
C       3.57500015   -4.62757726   -8.64447223
C       2.86000027   -5.78447171   -8.20257791
C       1.43000039   -8.09826009   -7.31878878
C       0.71500019   -9.25515453   -6.87689397
C       5.00500040    0.00000000   -10.41204947
C       3.57500015    0.00000000   -10.41204947
C       0.71500019    0.00000000   -10.41204947
C      -0.71499969    0.00000000   -10.41204947
C      -3.57499939    0.00000000   -10.41204947
C      -5.00499990    0.00000000   -10.41204947
C      -1.15689432   -9.97015466   -5.72000003
C      -2.31378863   -9.52826085   -5.00500040
C      -4.62757726   -8.64447223   -3.57500015
C      -5.78447171   -8.20257791   -2.86000027
C      -8.09826009   -7.31878878   -1.43000039
C      -9.25515453   -6.87689397   -0.71500019
C      -0.71500000   -9.25515453   -6.87689447
C      -1.43000001   -8.09826109   -7.31878878
C      -2.86000002   -5.78447221   -8.20257791
C      -3.57499989   -4.62757777   -8.64447223
C      -5.00499990   -2.31378939   -9.52826186
C      -5.72000003   -1.15689469   -9.97015466
C      -9.97015466   -5.72000003   -1.15689432
C      -9.52826085   -5.00500040   -2.31378863
C      -8.64447223   -3.57500015   -4.62757726
C      -8.20257791   -2.86000027   -5.78447171
C      -7.31878878   -1.43000039   -8.09826009
C      -6.87689397   -0.71500019   -9.25515453
