84
C:\Documents and Settings\imartinez\Bureau\polyacetylene.pdb
C         11.08600        6.00100       24.03000
C         10.51400        4.68300       23.47300
C         10.12900        4.81000       21.98800
C         10.74400        5.93700       21.13600
C         11.66300        6.97700       21.80100
C         12.24600        6.46300       23.13000
C          9.00800        3.92400       21.41600
C         10.80700        8.21900       22.10900
C         12.80000        7.36400       20.83800
C         10.46700        6.03500       19.62200
C          9.60900        4.97600       18.90300
C          9.25500        5.15800       17.41600
C          8.35300        4.12900       16.70900
C          7.90000        4.37200       15.25800
C          6.93100        3.38600       14.58000
C          6.36900        3.69900       13.18100
C          5.33200        2.75800       12.54100
C          4.66700        3.14100       11.20600
H          9.63900        6.06700       16.84500
H          6.69500        4.64500       12.63400
C         -7.44800        2.40500        0.85500
C         -6.19200        3.28800        0.99200
C         -5.27900        2.81000        2.13500
C         -5.40600        1.36700        2.65900
C         -6.50500        0.44800        2.09600
C         -7.01300        0.93400        0.72600
C         -4.37400        3.82400        2.85700
C         -7.68800        0.48500        3.08000
C         -5.97500       -0.99300        1.98300
C         -4.43600        0.81700        3.72400
C         -3.26200        1.67000        4.24200
C         -2.35200        1.12200        5.35700
C         -1.17700        1.97000        5.87900
C         -0.30600        1.44800        7.03600
C          0.85700        2.30200        7.57200
C          1.67700        1.81300        8.78000
C          2.81700        2.68400        9.34000
C          3.56900        2.24100       10.60800
H         -2.55300        0.09200        5.80200
H          1.42600        0.81600        9.27300
H         11.46800        5.80000       25.08500
H         10.29100        6.81800       24.06000
H          9.60900        4.36600       24.08900
H         11.31900        3.88100       23.55400
H         12.80200        7.32600       23.62500
H         12.96300        5.59300       22.96000
H          9.46700        3.02900       20.88000
H          8.38700        4.53000       20.67600
H          8.34000        3.56000       22.26500
H         10.36200        8.62400       21.14000
H         11.45800        9.01900       22.59300
H          9.96700        7.92800       22.82300
H         12.35300        7.76900       19.87000
H         13.43200        6.44400       20.60800
H         13.45200        8.16400       21.32100
H         10.89800        6.90700       19.02800
H          9.22200        4.06800       19.47100
H          7.99600        3.20300       17.27000
H          8.25300        5.30000       14.69800
H          6.60300        2.44200       15.12700
H          5.03100        1.79600       13.07200
H          4.96500        4.10500       10.67600
H         -8.00600        2.73000       -0.08400
H         -8.12900        2.51200        1.76300
H         -6.50000        4.37300        1.15900
H         -5.59800        3.21500        0.02200
H         -7.90700        0.28800        0.43500
H         -6.20300        0.84800       -0.07100
H         -4.79100        4.87600        2.71600
H         -3.32100        3.76900        2.42300
H         -4.33700        3.57400        3.96900
H         -7.34000        0.12700        4.10600
H         -8.52000       -0.19600        2.70000
H         -8.07700        1.55400        3.16000
H         -5.09800       -1.01800        1.25600
H         -6.80500       -1.67500        1.60300
H         -5.62800       -1.34900        3.00900
H         -4.58600       -0.23800        4.12900
H         -3.06600        2.70300        3.80600
H         -0.96100        2.99000        5.41700
H         -0.53200        0.43400        7.50600
H          1.10000        3.30400        7.08500
H          3.08700        3.66700        8.83100
H          3.29400        1.26100       11.12100
